#======================================================================

# CRYSTAL DATA

#----------------------------------------------------------------------

data_VESTA_phase_1


_chemical_name_common                  '(S C11 H12)8  (P-1) mC8BTBT_optB88    '
_cell_length_a                         6.08512
_cell_length_b                         7.48941
_cell_length_c                         40.34414
_cell_angle_alpha                      88.84682
_cell_angle_beta                       87.50204
_cell_angle_gamma                      89.85931
_space_group_name_H-M_alt              'P 1'
_space_group_IT_number                 1

loop_
_space_group_symop_operation_xyz
   'x, y, z'

loop_
   _atom_site_label
   _atom_site_occupancy
   _atom_site_fract_x
   _atom_site_fract_y
   _atom_site_fract_z
   _atom_site_adp_type
   _atom_site_B_iso_or_equiv
   _atom_site_type_symbol
   C1         1.0     0.158432      0.015119      0.137330     Biso  1.000000 C
   C2         1.0     0.841568      0.984881      0.862670     Biso  1.000000 C
   C3         1.0     0.343278      0.082167      0.151865     Biso  1.000000 C
   C4         1.0     0.656722      0.917833      0.848135     Biso  1.000000 C
   C5         1.0     0.377587      0.094016      0.090097     Biso  1.000000 C
   C6         1.0     0.622413      0.905984      0.909903     Biso  1.000000 C
   C7         1.0     0.431693      0.114583      0.056115     Biso  1.000000 C
   C8         1.0     0.568307      0.885417      0.943885     Biso  1.000000 C
   C9         1.0     0.280849      0.056416      0.033570     Biso  1.000000 C
   C10        1.0     0.719151      0.943584      0.966430     Biso  1.000000 C
   C11        1.0     0.079277      0.978682      0.044703     Biso  1.000000 C
   C12        1.0     0.920723      0.021318      0.955297     Biso  1.000000 C
   C13        1.0     0.023284      0.960541      0.078456     Biso  1.000000 C
   C14        1.0     0.976716      0.039459      0.921544     Biso  1.000000 C
   C15        1.0     0.172214      0.018538      0.101768     Biso  1.000000 C
   C16        1.0     0.827786      0.981462      0.898232     Biso  1.000000 C
   C17        1.0     0.076698      0.967715      0.232847     Biso  1.000000 C
   C18        1.0     0.923302      0.032285      0.767153     Biso  1.000000 C
   C19        1.0     0.126671      0.997609      0.199035     Biso  1.000000 C
   C20        1.0     0.873329      0.002391      0.800965     Biso  1.000000 C
   C21        1.0     0.330753      0.075563      0.187455     Biso  1.000000 C
   C22        1.0     0.669247      0.924438      0.812545     Biso  1.000000 C
   C23        1.0     0.480359      0.128417      0.211043     Biso  1.000000 C
   C24        1.0     0.519641      0.871583      0.788957     Biso  1.000000 C
   C25        1.0     0.427957      0.099857      0.244711     Biso  1.000000 C
   C26        1.0     0.572043      0.900143      0.755289     Biso  1.000000 C
   C27        1.0     0.229152      0.017202      0.256053     Biso  1.000000 C
   C28        1.0     0.770848      0.982798      0.743947     Biso  1.000000 C
   C29        1.0     0.185087      0.973195      0.292589     Biso  1.000000 C
   C30        1.0     0.814913      0.026805      0.707411     Biso  1.000000 C
   C31        1.0     0.981870      0.064670      0.308997     Biso  1.000000 C
   C32        1.0     0.018130      0.935330      0.691003     Biso  1.000000 C
   C33        1.0     0.935102      0.993969      0.344578     Biso  1.000000 C
   C34        1.0     0.064898      0.006031      0.655422     Biso  1.000000 C
   C35        1.0     0.728444      0.072373      0.361988     Biso  1.000000 C
   C36        1.0     0.271556      0.927627      0.638012     Biso  1.000000 C
   C37        1.0     0.682971      0.989524      0.396733     Biso  1.000000 C
   C38        1.0     0.317029      0.010476      0.603267     Biso  1.000000 C
   C39        1.0     0.476276      0.062122      0.415029     Biso  1.000000 C
   C40        1.0     0.523724      0.937878      0.584971     Biso  1.000000 C
   C41        1.0     0.432063      0.972988      0.449284     Biso  1.000000 C
   C42        1.0     0.567937      0.027012      0.550716     Biso  1.000000 C
   C43        1.0     0.227384      0.046746      0.467900     Biso  1.000000 C
   C44        1.0     0.772616      0.953254      0.532100     Biso  1.000000 C
   C45        1.0     0.839425      0.511337      0.151286     Biso  1.000000 C
   C46        1.0     0.160575      0.488663      0.848714     Biso  1.000000 C
   C47        1.0     0.653814      0.579961      0.136582     Biso  1.000000 C
   C48        1.0     0.346186      0.420039      0.863418     Biso  1.000000 C
   C49        1.0     0.665320      0.577521      0.101007     Biso  1.000000 C
   C50        1.0     0.334680      0.422479      0.898993     Biso  1.000000 C
   C51        1.0     0.514023      0.634295      0.077450     Biso  1.000000 C
   C52        1.0     0.485977      0.365705      0.922550     Biso  1.000000 C
   C53        1.0     0.566779      0.614071      0.043772     Biso  1.000000 C
   C54        1.0     0.433221      0.385929      0.956228     Biso  1.000000 C
   C55        1.0     0.768043      0.536235      0.032965     Biso  1.000000 C
   C56        1.0     0.231957      0.463765      0.967035     Biso  1.000000 C
   C57        1.0     0.921115      0.479306      0.055743     Biso  1.000000 C
   C58        1.0     0.078885      0.520694      0.944257     Biso  1.000000 C
   C59        1.0     0.869964      0.501535      0.089601     Biso  1.000000 C
   C60        1.0     0.130036      0.498465      0.910399     Biso  1.000000 C
   C61        1.0     0.573684      0.614974      0.232066     Biso  1.000000 C
   C62        1.0     0.426316      0.385026      0.767934     Biso  1.000000 C
   C63        1.0     0.623124      0.589408      0.198310     Biso  1.000000 C
   C64        1.0     0.376876      0.410592      0.801690     Biso  1.000000 C
   C65        1.0     0.827492      0.513204      0.186866     Biso  1.000000 C
   C66        1.0     0.172508      0.486796      0.813134     Biso  1.000000 C
   C67        1.0     0.977764      0.457041      0.210547     Biso  1.000000 C
   C68        1.0     0.022236      0.542959      0.789453     Biso  1.000000 C
   C69        1.0     0.925822      0.481068      0.244159     Biso  1.000000 C
   C70        1.0     0.074178      0.518932      0.755841     Biso  1.000000 C
   C71        1.0     0.726835      0.562346      0.255358     Biso  1.000000 C
   C72        1.0     0.273165      0.437654      0.744642     Biso  1.000000 C
   C73        1.0     0.683097      0.600853      0.291829     Biso  1.000000 C
   C74        1.0     0.316903      0.399147      0.708171     Biso  1.000000 C
   C75        1.0     0.482512      0.504477      0.308586     Biso  1.000000 C
   C76        1.0     0.517488      0.495523      0.691414     Biso  1.000000 C
   C77        1.0     0.436206      0.567267      0.344215     Biso  1.000000 C
   C78        1.0     0.563794      0.432733      0.655785     Biso  1.000000 C
   C79        1.0     0.231069      0.483739      0.361715     Biso  1.000000 C
   C80        1.0     0.768931      0.516261      0.638285     Biso  1.000000 C
   C81        1.0     0.184560      0.558161      0.396532     Biso  1.000000 C
   C82        1.0     0.815440      0.441839      0.603468     Biso  1.000000 C
   C83        1.0     0.980166      0.478465      0.414866     Biso  1.000000 C
   C84        1.0     0.019834      0.521535      0.585134     Biso  1.000000 C
   C85        1.0     0.932800      0.559699      0.449114     Biso  1.000000 C
   C86        1.0     0.067200      0.440301      0.550886     Biso  1.000000 C
   C87        1.0     0.731778      0.476972      0.467820     Biso  1.000000 C
   C88        1.0     0.268222      0.523028      0.532180     Biso  1.000000 C
   H1         1.0     0.588167      0.174156      0.047592     Biso  1.000000 H
   H2         1.0     0.411833      0.825844      0.952408     Biso  1.000000 H
   H3         1.0     0.320801      0.070944      0.007036     Biso  1.000000 H
   H4         1.0     0.679199      0.929056      0.992964     Biso  1.000000 H
   H5         1.0     0.965750      0.930529      0.026764     Biso  1.000000 H
   H6         1.0     0.034250      0.069471      0.973236     Biso  1.000000 H
   H7         1.0     0.866926      0.900747      0.086818     Biso  1.000000 H
   H8         1.0     0.133074      0.099253      0.913182     Biso  1.000000 H
   H9         1.0     0.922351      0.902750      0.240844     Biso  1.000000 H
   H10        1.0     0.077649      0.097250      0.759156     Biso  1.000000 H
   H11        1.0     0.636249      0.190214      0.203062     Biso  1.000000 H
   H12        1.0     0.363751      0.809786      0.796938     Biso  1.000000 H
   H13        1.0     0.545601      0.140576      0.262778     Biso  1.000000 H
   H14        1.0     0.454399      0.859424      0.737222     Biso  1.000000 H
   H15        1.0     0.162758      0.827152      0.295640     Biso  1.000000 H
   H16        1.0     0.837242      0.172848      0.704360     Biso  1.000000 H
   H17        1.0     0.331551      0.006778      0.306374     Biso  1.000000 H
   H18        1.0     0.668449      0.993222      0.693626     Biso  1.000000 H
   H19        1.0     0.837370      0.041274      0.294073     Biso  1.000000 H
   H20        1.0     0.162630      0.958726      0.705927     Biso  1.000000 H
   H21        1.0     0.006869      0.210660      0.308930     Biso  1.000000 H
   H22        1.0    -0.006869      0.789340      0.691070     Biso  1.000000 H
   H23        1.0     0.918607      0.847025      0.344114     Biso  1.000000 H
   H24        1.0     0.081393      0.152975      0.655886     Biso  1.000000 H
   H25        1.0     0.078982      0.020332      0.359561     Biso  1.000000 H
   H26        1.0     0.921018      0.979668      0.640439     Biso  1.000000 H
   H27        1.0     0.584951      0.049908      0.346704     Biso  1.000000 H
   H28        1.0     0.415049      0.950092      0.653296     Biso  1.000000 H
   H29        1.0     0.745744      0.218681      0.363768     Biso  1.000000 H
   H30        1.0     0.254256      0.781319      0.636232     Biso  1.000000 H
   H31        1.0     0.667845      0.843120      0.394608     Biso  1.000000 H
   H32        1.0     0.332155      0.156880      0.605392     Biso  1.000000 H
   H33        1.0     0.827035      0.011791      0.411901     Biso  1.000000 H
   H34        1.0     0.172965      0.988209      0.588099     Biso  1.000000 H
   H35        1.0     0.332190      0.042157      0.399750     Biso  1.000000 H
   H36        1.0     0.667810      0.957843      0.600250     Biso  1.000000 H
   H37        1.0     0.492151      0.208009      0.417837     Biso  1.000000 H
   H38        1.0     0.507849      0.791991      0.582163     Biso  1.000000 H
   H39        1.0     0.413577      0.827615      0.446280     Biso  1.000000 H
   H40        1.0     0.586423      0.172385      0.553720     Biso  1.000000 H
   H41        1.0     0.577264     -0.009761      0.464358     Biso  1.000000 H
   H42        1.0     0.422736      0.009761      0.535642     Biso  1.000000 H
   H43        1.0     0.245706      0.189965      0.472949     Biso  1.000000 H
   H44        1.0     0.754294      0.810035      0.527051     Biso  1.000000 H
   H45        1.0     0.195935      0.976203      0.491777     Biso  1.000000 H
   H46        1.0     0.804065      0.023797      0.508223     Biso  1.000000 H
   H47        1.0     0.079996      0.031579      0.453292     Biso  1.000000 H
   H48        1.0     0.920004      0.968421      0.546708     Biso  1.000000 H
   H49        1.0     0.357789      0.693912      0.085558     Biso  1.000000 H
   H50        1.0     0.642211      0.306088      0.914442     Biso  1.000000 H
   H51        1.0     0.450466      0.659269      0.025545     Biso  1.000000 H
   H52        1.0     0.549534      0.340731      0.974455     Biso  1.000000 H
   H53        1.0     0.804245      0.520254      0.006494     Biso  1.000000 H
   H54        1.0     0.195755      0.479746      0.993506     Biso  1.000000 H
   H55        1.0     0.076549      0.417883      0.047626     Biso  1.000000 H
   H56        1.0     0.923451      0.582117      0.952374     Biso  1.000000 H
   H57        1.0     0.419120      0.678860      0.239953     Biso  1.000000 H
   H58        1.0     0.580880      0.321140      0.760047     Biso  1.000000 H
   H59        1.0     0.133830      0.396255      0.202676     Biso  1.000000 H
   H60        1.0     0.866170      0.603745      0.797324     Biso  1.000000 H
   H61        1.0     0.044007      0.437851      0.262295     Biso  1.000000 H
   H62        1.0     0.955993      0.562149      0.737705     Biso  1.000000 H
   H63        1.0     0.830852      0.566904      0.305574     Biso  1.000000 H
   H64        1.0     0.169148      0.433096      0.694426     Biso  1.000000 H
   H65        1.0     0.657550      0.746198      0.294557     Biso  1.000000 H
   H66        1.0     0.342450      0.253802      0.705443     Biso  1.000000 H
   H67        1.0     0.510214      0.358725      0.308537     Biso  1.000000 H
   H68        1.0     0.489786      0.641275      0.691463     Biso  1.000000 H
   H69        1.0     0.336663      0.529588      0.293834     Biso  1.000000 H
   H70        1.0     0.663337      0.470412      0.706166     Biso  1.000000 H
   H71        1.0     0.580993      0.538262      0.359078     Biso  1.000000 H
   H72        1.0     0.419007      0.461738      0.640922     Biso  1.000000 H
   H73        1.0     0.417705      0.714204      0.343816     Biso  1.000000 H
   H74        1.0     0.582295      0.285796      0.656184     Biso  1.000000 H
   H75        1.0     0.250662      0.337137      0.363404     Biso  1.000000 H
   H76        1.0     0.749338      0.662863      0.636596     Biso  1.000000 H
   H77        1.0     0.086893      0.508748      0.346499     Biso  1.000000 H
   H78        1.0     0.913107      0.491252      0.653501     Biso  1.000000 H
   H79        1.0     0.329595      0.534331      0.411612     Biso  1.000000 H
   H80        1.0     0.670405      0.465669      0.588387     Biso  1.000000 H
   H81        1.0     0.165588      0.704809      0.394504     Biso  1.000000 H
   H82        1.0     0.834412      0.295191      0.605496     Biso  1.000000 H
   H83        1.0     0.000622      0.332305      0.417687     Biso  1.000000 H
   H84        1.0    -0.000622      0.667695      0.582313     Biso  1.000000 H
   H85        1.0     0.835467      0.499107      0.399571     Biso  1.000000 H
   H86        1.0     0.164533      0.500893      0.600429     Biso  1.000000 H
   H87        1.0     0.079008      0.543399      0.464154     Biso  1.000000 H
   H88        1.0     0.920992      0.456601      0.535846     Biso  1.000000 H
   H89        1.0     0.907603      0.705055      0.446049     Biso  1.000000 H
   H90        1.0     0.092397      0.294945      0.553951     Biso  1.000000 H
   H91        1.0     0.583636      0.490821      0.453209     Biso  1.000000 H
   H92        1.0     0.416364      0.509179      0.546791     Biso  1.000000 H
   H93        1.0     0.697127      0.542261      0.491645     Biso  1.000000 H
   H94        1.0     0.302873      0.457739      0.508355     Biso  1.000000 H
   H95        1.0     0.756782      0.333358      0.472987     Biso  1.000000 H
   H96        1.0     0.243218      0.666642      0.527013     Biso  1.000000 H
   S1         1.0     0.957804      0.943002      0.166633     Biso  1.000000 S
   S2         1.0     0.042196      0.056998      0.833367     Biso  1.000000 S
   S3         1.0     0.544815      0.151403      0.122498     Biso  1.000000 S
   S4         1.0     0.455185      0.848597      0.877502     Biso  1.000000 S
   S5         1.0     0.453336      0.648039      0.165802     Biso  1.000000 S
   S6         1.0     0.546664      0.351961      0.834198     Biso  1.000000 S
   S7         1.0     0.039590      0.443039      0.122099     Biso  1.000000 S
   S8         1.0     0.960410      0.556961      0.877901     Biso  1.000000 S
