#======================================================================

# CRYSTAL DATA

#----------------------------------------------------------------------

data_VESTA_phase_1


_chemical_name_common                  '(Si S C17 H19)2  (P-1) k04014-didorder'
_cell_length_a                         6.73180
_cell_length_b                         7.25110
_cell_length_c                         16.69500
_cell_angle_alpha                      98.14420
_cell_angle_beta                       94.52890
_cell_angle_gamma                      103.91830
_space_group_name_H-M_alt              'P 1'
_space_group_IT_number                 1

loop_
_space_group_symop_operation_xyz
   'x, y, z'

loop_
   _atom_site_label
   _atom_site_occupancy
   _atom_site_fract_x
   _atom_site_fract_y
   _atom_site_fract_z
   _atom_site_adp_type
   _atom_site_B_iso_or_equiv
   _atom_site_type_symbol
   Si1        1.0     0.785420      0.377490      0.177330     Biso  1.000000 Si
   Si2        1.0     0.214580      0.622510      0.822670     Biso  1.000000 Si
   C1         1.0     0.572200      0.459600      0.423700     Biso  1.000000 C
   C2         1.0     0.427800      0.540400      0.576300     Biso  1.000000 C
   C3         1.0     0.706100      0.589500      0.487780     Biso  1.000000 C
   C4         1.0     0.293900      0.410500      0.512220     Biso  1.000000 C
   C5         1.0     0.912600      0.677400      0.477470     Biso  1.000000 C
   C6         1.0     0.087400      0.322600      0.522530     Biso  1.000000 C
   C7         1.0     0.037700      0.807100      0.539880     Biso  1.000000 C
   C8         1.0     0.962300      0.192900      0.460120     Biso  1.000000 C
   C9         1.0     0.252800      0.908200      0.539400     Biso  1.000000 C
   C10        1.0     0.747200      0.091800      0.460600     Biso  1.000000 C
   C11        1.0     0.328900      0.031400      0.611190     Biso  1.000000 C
   C12        1.0     0.671100      0.968600      0.388810     Biso  1.000000 C
   C13        1.0     0.960300      0.857000      0.614990     Biso  1.000000 C
   C14        1.0     0.039700      0.143000      0.385010     Biso  1.000000 C
   C15        1.0     0.763200      0.771400      0.627800     Biso  1.000000 C
   C16        1.0     0.236800      0.228600      0.372200     Biso  1.000000 C
   C17        1.0     0.632100      0.633300      0.565040     Biso  1.000000 C
   C18        1.0     0.367900      0.366700      0.434960     Biso  1.000000 C
   C19        1.0     0.643000      0.423200      0.345820     Biso  1.000000 C
   C20        1.0     0.357000      0.576800      0.654180     Biso  1.000000 C
   C21        1.0     0.700700      0.396400      0.279480     Biso  1.000000 C
   C22        1.0     0.299300      0.603600      0.720520     Biso  1.000000 C
   C23        1.0     0.669900      0.128500      0.119690     Biso  1.000000 C
   C24        1.0     0.330100      0.871500      0.880310     Biso  1.000000 C
   C25        1.0     0.442600      0.046000      0.126460     Biso  1.000000 C
   C26        1.0     0.557400      0.954000      0.873540     Biso  1.000000 C
   C27        1.0     0.691600      0.561300      0.127350     Biso  1.000000 C
   C28        1.0     0.308400      0.438700      0.872650     Biso  1.000000 C
   C29        1.0     0.771000      0.592200      0.045270     Biso  1.000000 C
   C30        1.0     0.229000      0.407800      0.954730     Biso  1.000000 C
   C31        1.0     0.072600      0.427600      0.187000     Biso  1.000000 C
   C32        1.0     0.927400      0.572400      0.813000     Biso  1.000000 C
   C33        1.0     0.189200      0.616800      0.240930     Biso  1.000000 C
   C34        1.0     0.810800      0.383200      0.759070     Biso  1.000000 C
   H1         1.0     0.964300      0.646500      0.427300     Biso  1.000000 H
   H2         1.0     0.035700      0.353500      0.572700     Biso  1.000000 H
   H3         1.0     0.330300      0.890800      0.495100     Biso  1.000000 H
   H4         1.0     0.669700      0.109200      0.504900     Biso  1.000000 H
   H5         1.0     0.466400      0.109500      0.621800     Biso  1.000000 H
   H6         1.0     0.533600      0.890500      0.378200     Biso  1.000000 H
   H7         1.0     0.714700      0.804500      0.678400     Biso  1.000000 H
   H8         1.0     0.285300      0.195500      0.321600     Biso  1.000000 H
   H9         1.0     0.687400      0.129500      0.061400     Biso  1.000000 H
   H10        1.0     0.312600      0.870500      0.938600     Biso  1.000000 H
   H11        1.0     0.748300      0.041200      0.139300     Biso  1.000000 H
   H12        1.0     0.251700      0.958800      0.860700     Biso  1.000000 H
   H13        1.0     0.423000      0.041600      0.183800     Biso  1.000000 H
   H14        1.0     0.577000      0.958400      0.816200     Biso  1.000000 H
   H15        1.0     0.396700      0.915400      0.095000     Biso  1.000000 H
   H16        1.0     0.603300      0.084600      0.905000     Biso  1.000000 H
   H17        1.0     0.361900      0.127800      0.105000     Biso  1.000000 H
   H18        1.0     0.638100      0.872200      0.895000     Biso  1.000000 H
   H19        1.0     0.539100      0.521800      0.118900     Biso  1.000000 H
   H20        1.0     0.460900      0.478200      0.881100     Biso  1.000000 H
   H21        1.0     0.733200      0.685900      0.165000     Biso  1.000000 H
   H22        1.0     0.266800      0.314100      0.835000     Biso  1.000000 H
   H23        1.0     0.921800      0.636600      0.053100     Biso  1.000000 H
   H24        1.0     0.078200      0.363400      0.946900     Biso  1.000000 H
   H25        1.0     0.713300      0.689200      0.023400     Biso  1.000000 H
   H26        1.0     0.286700      0.310800      0.976600     Biso  1.000000 H
   H27        1.0     0.728600      0.470500      0.006900     Biso  1.000000 H
   H28        1.0     0.271400      0.529500      0.993100     Biso  1.000000 H
   H29        1.0     0.113300      0.320500      0.209100     Biso  1.000000 H
   H30        1.0     0.886700      0.679500      0.790900     Biso  1.000000 H
   H31        1.0     0.116700      0.427900      0.131800     Biso  1.000000 H
   H32        1.0     0.883300      0.572100      0.868200     Biso  1.000000 H
   H33        1.0     0.156000      0.724800      0.218400     Biso  1.000000 H
   H34        1.0     0.844000      0.275200      0.781600     Biso  1.000000 H
   H35        1.0     0.337700      0.628900      0.243000     Biso  1.000000 H
   H36        1.0     0.662300      0.371100      0.757000     Biso  1.000000 H
   H37        1.0     0.148700      0.618100      0.296100     Biso  1.000000 H
   H38        1.0     0.851300      0.381900      0.703900     Biso  1.000000 H
   S1         1.0     0.150140      0.031470      0.681250     Biso  1.000000 S
   S2         1.0     0.849860      0.968530      0.318750     Biso  1.000000 S
