data_C8_BTBT

_audit_creation_date               2017-03-31
_audit_creation_method             'generated by MedeA 2.20.2.6549'

_chemical_formula_sum              'C15H20S'

_symmetry_space_group_name_H-M     'P121/a1'
_symmetry_Int_Tables_number        14

_cell_length_a                     5.92700
_cell_length_b                     7.88000
_cell_length_c                     29.18000
_cell_angle_alpha                  90.00
_cell_angle_beta                   92.44
_cell_angle_gamma                  90.00
_cell_volume                       1361.61
_cell_formula_units_Z              4

loop_
_atom_site_label
_atom_site_symmetry_multiplicity
_atom_site_Wyckoff_symbol
_atom_site_fract_x
_atom_site_fract_y
_atom_site_fract_z
_atom_site_occupancy
S(1)     4 e   0.27639   0.11304   0.46923 1.0
C(1)     4 e   0.08708   0.05115   0.42491 1.0
C(2)     4 e   0.11314   0.07959   0.37821 1.0
C(3)     4 e   0.94570   0.02359   0.34649 1.0
C(4)     4 e   0.75666   0.93590   0.36237 1.0
C(5)     4 e   0.72758   0.90847   0.40882 1.0
C(6)     4 e   0.89153   0.96809   0.44111 1.0
C(7)     4 e   0.90270   0.96327   0.49015 1.0
C(8)     4 e   0.96490   0.06267   0.29619 1.0
C(9)     4 e   0.15956   0.97414   0.27271 1.0
C(10)    4 e   0.18057   0.03584   0.22346 1.0
C(11)    4 e   0.37567   0.95881   0.19797 1.0
C(12)    4 e   0.39346   0.03240   0.14980 1.0
C(13)    4 e   0.58480   0.95820   0.12267 1.0
C(14)    4 e   0.59814   0.03393   0.07463 1.0
C(15)    4 e   0.78478   0.95650   0.04686 1.0
H(1)     4 e   0.26091   0.14820   0.36688 1.0
H(2)     4 e   0.62780   0.88980   0.33751 1.0
H(3)     4 e   0.57862   0.84170   0.42009 1.0
H(4)     4 e   0.98647   0.20106   0.29206 1.0
H(5)     4 e   0.80440   0.03026   0.27775 1.0
H(6)     4 e   0.31883   0.99824   0.29261 1.0
H(7)     4 e   0.13369   0.83550   0.27332 1.0
H(8)     4 e   0.19935   0.17541   0.22382 1.0
H(9)     4 e   0.02058   0.01010   0.20381 1.0
H(10)    4 e   0.53604   0.98094   0.21781 1.0
H(11)    4 e   0.35520   0.81966   0.19579 1.0
H(12)    4 e   0.41497   0.17144   0.15238 1.0
H(13)    4 e   0.23141   0.01234   0.13036 1.0
H(14)    4 e   0.56359   0.81919   0.11992 1.0
H(15)    4 e   0.74753   0.97862   0.14182 1.0
H(16)    4 e   0.62343   0.17241   0.07751 1.0
H(17)    4 e   0.43381   0.01677   0.05595 1.0
H(18)    4 e   0.75920   0.81910   0.04202 1.0
H(19)    4 e   0.95179   0.97437   0.06423 1.0
H(20)    4 e   0.79107   0.01447   0.01266 1.0
