#======================================================================

# CRYSTAL DATA

#----------------------------------------------------------------------

data_VESTA_phase_1


_chemical_name_common                  'Si C H S                              '
_cell_length_a                         17.53229
_cell_length_b                         17.86051
_cell_length_c                         12.01746
_cell_angle_alpha                      90
_cell_angle_beta                       89.80059
_cell_angle_gamma                      90
_space_group_name_H-M_alt              'P 1'
_space_group_IT_number                 1

loop_
_space_group_symop_operation_xyz
   'x, y, z'

loop_
   _atom_site_label
   _atom_site_occupancy
   _atom_site_fract_x
   _atom_site_fract_y
   _atom_site_fract_z
   _atom_site_adp_type
   _atom_site_B_iso_or_equiv
   _atom_site_type_symbol
   Si1        1.0     0.451732      0.174847      0.438213     Biso  1.000000 Si
   Si2        1.0     0.951732      0.174847      0.438213     Biso  1.000000 Si
   Si3        1.0     0.048268      0.674847      0.061787     Biso  1.000000 Si
   Si4        1.0     0.548268      0.674847      0.061787     Biso  1.000000 Si
   Si5        1.0     0.048268      0.825153      0.561787     Biso  1.000000 Si
   Si6        1.0     0.548268      0.825153      0.561787     Biso  1.000000 Si
   Si7        1.0     0.451732      0.325153      0.938213     Biso  1.000000 Si
   Si8        1.0     0.951732      0.325153      0.938213     Biso  1.000000 Si
   C1         1.0     0.489443      0.421317      0.483229     Biso  1.000000 C
   C2         1.0     0.989443      0.421317      0.483229     Biso  1.000000 C
   C3         1.0     0.010557      0.921317      0.016771     Biso  1.000000 C
   C4         1.0     0.510557      0.921317      0.016771     Biso  1.000000 C
   C5         1.0     0.010557      0.578683      0.516771     Biso  1.000000 C
   C6         1.0     0.510557      0.578683      0.516771     Biso  1.000000 C
   C7         1.0     0.489443      0.078683      0.983229     Biso  1.000000 C
   C8         1.0     0.989443      0.078683      0.983229     Biso  1.000000 C
   C9         1.0     0.059612      0.455596      0.450825     Biso  1.000000 C
   C10        1.0     0.559612      0.455596      0.450825     Biso  1.000000 C
   C11        1.0     0.440388      0.955596      0.049175     Biso  1.000000 C
   C12        1.0     0.940388      0.955596      0.049175     Biso  1.000000 C
   C13        1.0     0.440388      0.544404      0.549175     Biso  1.000000 C
   C14        1.0     0.940388      0.544404      0.549175     Biso  1.000000 C
   C15        1.0     0.059612      0.044404      0.950825     Biso  1.000000 C
   C16        1.0     0.559612      0.044404      0.950825     Biso  1.000000 C
   C17        1.0     0.118258      0.413203      0.398070     Biso  1.000000 C
   C18        1.0     0.618258      0.413203      0.398070     Biso  1.000000 C
   C19        1.0     0.381742      0.913203      0.101930     Biso  1.000000 C
   C20        1.0     0.881742      0.913203      0.101930     Biso  1.000000 C
   C21        1.0     0.381742      0.586797      0.601930     Biso  1.000000 C
   C22        1.0     0.881742      0.586797      0.601930     Biso  1.000000 C
   C23        1.0     0.118258      0.086797      0.898070     Biso  1.000000 C
   C24        1.0     0.618258      0.086797      0.898070     Biso  1.000000 C
   C25        1.0     0.184003      0.448770      0.363693     Biso  1.000000 C
   C26        1.0     0.684003      0.448770      0.363693     Biso  1.000000 C
   C27        1.0     0.315997      0.948770      0.136307     Biso  1.000000 C
   C28        1.0     0.815997      0.948770      0.136307     Biso  1.000000 C
   C29        1.0     0.315997      0.551230      0.636307     Biso  1.000000 C
   C30        1.0     0.815997      0.551230      0.636307     Biso  1.000000 C
   C31        1.0     0.184003      0.051230      0.863693     Biso  1.000000 C
   C32        1.0     0.684003      0.051230      0.863693     Biso  1.000000 C
   C33        1.0     0.309264      0.494635      0.291481     Biso  1.000000 C
   C34        1.0     0.809264      0.494635      0.291481     Biso  1.000000 C
   C35        1.0     0.190736      0.994635      0.208519     Biso  1.000000 C
   C36        1.0     0.690736      0.994635      0.208519     Biso  1.000000 C
   C37        1.0     0.190736      0.505365      0.708519     Biso  1.000000 C
   C38        1.0     0.690736      0.505365      0.708519     Biso  1.000000 C
   C39        1.0     0.309264      0.005365      0.791481     Biso  1.000000 C
   C40        1.0     0.809264      0.005365      0.791481     Biso  1.000000 C
   C41        1.0     0.269984      0.551220      0.341397     Biso  1.000000 C
   C42        1.0     0.769983      0.551220      0.341397     Biso  1.000000 C
   C43        1.0     0.230017      0.051220      0.158603     Biso  1.000000 C
   C44        1.0     0.730017      0.051220      0.158603     Biso  1.000000 C
   C45        1.0     0.230017      0.448780      0.658603     Biso  1.000000 C
   C46        1.0     0.730017      0.448780      0.658603     Biso  1.000000 C
   C47        1.0     0.269984      0.948780      0.841397     Biso  1.000000 C
   C48        1.0     0.769983      0.948780      0.841397     Biso  1.000000 C
   C49        1.0     0.196741      0.527558      0.383277     Biso  1.000000 C
   C50        1.0     0.696741      0.527558      0.383277     Biso  1.000000 C
   C51        1.0     0.303259      0.027558      0.116723     Biso  1.000000 C
   C52        1.0     0.803259      0.027558      0.116723     Biso  1.000000 C
   C53        1.0     0.303259      0.472442      0.616723     Biso  1.000000 C
   C54        1.0     0.803259      0.472442      0.616723     Biso  1.000000 C
   C55        1.0     0.196741      0.972442      0.883277     Biso  1.000000 C
   C56        1.0     0.696741      0.972442      0.883277     Biso  1.000000 C
   C57        1.0     0.140302      0.569258      0.435388     Biso  1.000000 C
   C58        1.0     0.640302      0.569258      0.435388     Biso  1.000000 C
   C59        1.0     0.359698      0.069258      0.064612     Biso  1.000000 C
   C60        1.0     0.859698      0.069258      0.064612     Biso  1.000000 C
   C61        1.0     0.359698      0.430742      0.564612     Biso  1.000000 C
   C62        1.0     0.859698      0.430742      0.564612     Biso  1.000000 C
   C63        1.0     0.140302      0.930742      0.935388     Biso  1.000000 C
   C64        1.0     0.640302      0.930742      0.935388     Biso  1.000000 C
   C65        1.0     0.070675      0.535270      0.468616     Biso  1.000000 C
   C66        1.0     0.570675      0.535270      0.468616     Biso  1.000000 C
   C67        1.0     0.429325      0.035270      0.031384     Biso  1.000000 C
   C68        1.0     0.929325      0.035270      0.031384     Biso  1.000000 C
   C69        1.0     0.429325      0.464730      0.531384     Biso  1.000000 C
   C70        1.0     0.929325      0.464730      0.531384     Biso  1.000000 C
   C71        1.0     0.070675      0.964730      0.968616     Biso  1.000000 C
   C72        1.0     0.570675      0.964730      0.968616     Biso  1.000000 C
   C73        1.0     0.479232      0.343226      0.469136     Biso  1.000000 C
   C74        1.0     0.979232      0.343226      0.469136     Biso  1.000000 C
   C75        1.0     0.020768      0.843226      0.030864     Biso  1.000000 C
   C76        1.0     0.520768      0.843226      0.030864     Biso  1.000000 C
   C77        1.0     0.020768      0.656774      0.530864     Biso  1.000000 C
   C78        1.0     0.520768      0.656774      0.530864     Biso  1.000000 C
   C79        1.0     0.479232      0.156774      0.969136     Biso  1.000000 C
   C80        1.0     0.979232      0.156774      0.969136     Biso  1.000000 C
   C81        1.0     0.469652      0.275574      0.457665     Biso  1.000000 C
   C82        1.0     0.969652      0.275574      0.457665     Biso  1.000000 C
   C83        1.0     0.030348      0.775574      0.042335     Biso  1.000000 C
   C84        1.0     0.530348      0.775574      0.042335     Biso  1.000000 C
   C85        1.0     0.030348      0.724426      0.542335     Biso  1.000000 C
   C86        1.0     0.530348      0.724426      0.542335     Biso  1.000000 C
   C87        1.0     0.469652      0.224426      0.957665     Biso  1.000000 C
   C88        1.0     0.969652      0.224426      0.957665     Biso  1.000000 C
   C89        1.0     0.343418      0.162716      0.445847     Biso  1.000000 C
   C90        1.0     0.843418      0.162716      0.445847     Biso  1.000000 C
   C91        1.0     0.156582      0.662716      0.054153     Biso  1.000000 C
   C92        1.0     0.656582      0.662716      0.054153     Biso  1.000000 C
   C93        1.0     0.156582      0.837284      0.554153     Biso  1.000000 C
   C94        1.0     0.656582      0.837284      0.554153     Biso  1.000000 C
   C95        1.0     0.343418      0.337284      0.945847     Biso  1.000000 C
   C96        1.0     0.843418      0.337284      0.945847     Biso  1.000000 C
   C97        1.0     0.303186      0.205105      0.350765     Biso  1.000000 C
   C98        1.0     0.803186      0.205105      0.350765     Biso  1.000000 C
   C99        1.0     0.196814      0.705105      0.149235     Biso  1.000000 C
   C100       1.0     0.696814      0.705105      0.149235     Biso  1.000000 C
   C101       1.0     0.196814      0.794895      0.649235     Biso  1.000000 C
   C102       1.0     0.696814      0.794895      0.649235     Biso  1.000000 C
   C103       1.0     0.303186      0.294895      0.850765     Biso  1.000000 C
   C104       1.0     0.803186      0.294895      0.850765     Biso  1.000000 C
   C105       1.0     0.316472      0.080473      0.452310     Biso  1.000000 C
   C106       1.0     0.816472      0.080473      0.452310     Biso  1.000000 C
   C107       1.0     0.183528      0.580473      0.047690     Biso  1.000000 C
   C108       1.0     0.683528      0.580473      0.047690     Biso  1.000000 C
   C109       1.0     0.183528      0.919527      0.547690     Biso  1.000000 C
   C110       1.0     0.683528      0.919527      0.547690     Biso  1.000000 C
   C111       1.0     0.316472      0.419527      0.952310     Biso  1.000000 C
   C112       1.0     0.816472      0.419527      0.952310     Biso  1.000000 C
   C113       1.0     0.498466      0.122566      0.558173     Biso  1.000000 C
   C114       1.0     0.998466      0.122566      0.558173     Biso  1.000000 C
   C115       1.0     0.001534      0.622566      0.941827     Biso  1.000000 C
   C116       1.0     0.501534      0.622566      0.941827     Biso  1.000000 C
   C117       1.0     0.001534      0.877434      0.441827     Biso  1.000000 C
   C118       1.0     0.501534      0.877434      0.441827     Biso  1.000000 C
   C119       1.0     0.498466      0.377434      0.058173     Biso  1.000000 C
   C120       1.0     0.998466      0.377434      0.058173     Biso  1.000000 C
   C121       1.0     0.085659      0.134056      0.565497     Biso  1.000000 C
   C122       1.0     0.585659      0.134056      0.565497     Biso  1.000000 C
   C123       1.0     0.414341      0.634056      0.934503     Biso  1.000000 C
   C124       1.0     0.914341      0.634056      0.934503     Biso  1.000000 C
   C125       1.0     0.414341      0.865944      0.434503     Biso  1.000000 C
   C126       1.0     0.914341      0.865944      0.434503     Biso  1.000000 C
   C127       1.0     0.085659      0.365944      0.065497     Biso  1.000000 C
   C128       1.0     0.585659      0.365944      0.065497     Biso  1.000000 C
   C129       1.0     0.459260      0.142573      0.669396     Biso  1.000000 C
   C130       1.0     0.959260      0.142573      0.669396     Biso  1.000000 C
   C131       1.0     0.040740      0.642573      0.830604     Biso  1.000000 C
   C132       1.0     0.540740      0.642573      0.830604     Biso  1.000000 C
   C133       1.0     0.040740      0.857427      0.330604     Biso  1.000000 C
   C134       1.0     0.540740      0.857427      0.330604     Biso  1.000000 C
   C135       1.0     0.459260      0.357427      0.169396     Biso  1.000000 C
   C136       1.0     0.959260      0.357427      0.169396     Biso  1.000000 C
   C137       1.0     0.492513      0.145122      0.297317     Biso  1.000000 C
   C138       1.0     0.992513      0.145122      0.297317     Biso  1.000000 C
   C139       1.0     0.007487      0.645122      0.202683     Biso  1.000000 C
   C140       1.0     0.507487      0.645122      0.202683     Biso  1.000000 C
   C141       1.0     0.007487      0.854878      0.702683     Biso  1.000000 C
   C142       1.0     0.507487      0.854878      0.702683     Biso  1.000000 C
   C143       1.0     0.492513      0.354878      0.797317     Biso  1.000000 C
   C144       1.0     0.992513      0.354878      0.797317     Biso  1.000000 C
   C145       1.0     0.498881      0.059047      0.291087     Biso  1.000000 C
   C146       1.0     0.998881      0.059047      0.291087     Biso  1.000000 C
   C147       1.0     0.001119      0.559047      0.208913     Biso  1.000000 C
   C148       1.0     0.501119      0.559047      0.208913     Biso  1.000000 C
   C149       1.0     0.001119      0.940953      0.708913     Biso  1.000000 C
   C150       1.0     0.501119      0.940953      0.708913     Biso  1.000000 C
   C151       1.0     0.498881      0.440953      0.791087     Biso  1.000000 C
   C152       1.0     0.998881      0.440953      0.791087     Biso  1.000000 C
   C153       1.0     0.069851      0.181417      0.267125     Biso  1.000000 C
   C154       1.0     0.569851      0.181417      0.267125     Biso  1.000000 C
   C155       1.0     0.430149      0.681417      0.232875     Biso  1.000000 C
   C156       1.0     0.930149      0.681417      0.232875     Biso  1.000000 C
   C157       1.0     0.430149      0.818583      0.732875     Biso  1.000000 C
   C158       1.0     0.930149      0.818583      0.732875     Biso  1.000000 C
   C159       1.0     0.069851      0.318583      0.767125     Biso  1.000000 C
   C160       1.0     0.569851      0.318583      0.767125     Biso  1.000000 C
   H1         1.0     0.109585      0.353474      0.384160     Biso  1.000000 H
   H2         1.0     0.609585      0.353474      0.384160     Biso  1.000000 H
   H3         1.0     0.390415      0.853474      0.115840     Biso  1.000000 H
   H4         1.0     0.890415      0.853474      0.115840     Biso  1.000000 H
   H5         1.0     0.390415      0.646526      0.615840     Biso  1.000000 H
   H6         1.0     0.890415      0.646526      0.615840     Biso  1.000000 H
   H7         1.0     0.109585      0.146526      0.884160     Biso  1.000000 H
   H8         1.0     0.609585      0.146526      0.884160     Biso  1.000000 H
   H9         1.0     0.365316      0.497315      0.253383     Biso  1.000000 H
   H10        1.0     0.865316      0.497315      0.253383     Biso  1.000000 H
   H11        1.0     0.134684      0.997315      0.246617     Biso  1.000000 H
   H12        1.0     0.634684      0.997315      0.246617     Biso  1.000000 H
   H13        1.0     0.134684      0.502685      0.746617     Biso  1.000000 H
   H14        1.0     0.634684      0.502685      0.746617     Biso  1.000000 H
   H15        1.0     0.365316      0.002685      0.753383     Biso  1.000000 H
   H16        1.0     0.865316      0.002685      0.753383     Biso  1.000000 H
   H17        1.0     0.291510      0.608174      0.348798     Biso  1.000000 H
   H18        1.0     0.791510      0.608174      0.348798     Biso  1.000000 H
   H19        1.0     0.208490      0.108174      0.151202     Biso  1.000000 H
   H20        1.0     0.708490      0.108174      0.151202     Biso  1.000000 H
   H21        1.0     0.208490      0.391826      0.651202     Biso  1.000000 H
   H22        1.0     0.708490      0.391826      0.651202     Biso  1.000000 H
   H23        1.0     0.291510      0.891826      0.848798     Biso  1.000000 H
   H24        1.0     0.791510      0.891826      0.848798     Biso  1.000000 H
   H25        1.0     0.148713      0.628894      0.450718     Biso  1.000000 H
   H26        1.0     0.648713      0.628894      0.450718     Biso  1.000000 H
   H27        1.0     0.351287      0.128894      0.049282     Biso  1.000000 H
   H28        1.0     0.851287      0.128894      0.049282     Biso  1.000000 H
   H29        1.0     0.351287      0.371106      0.549282     Biso  1.000000 H
   H30        1.0     0.851287      0.371106      0.549282     Biso  1.000000 H
   H31        1.0     0.148713      0.871106      0.950718     Biso  1.000000 H
   H32        1.0     0.648713      0.871106      0.950718     Biso  1.000000 H
   H33        1.0     0.327022      0.190489      0.524900     Biso  1.000000 H
   H34        1.0     0.827022      0.190489      0.524900     Biso  1.000000 H
   H35        1.0     0.172978      0.690489      0.975100     Biso  1.000000 H
   H36        1.0     0.672978      0.690489      0.975100     Biso  1.000000 H
   H37        1.0     0.172978      0.809511      0.475100     Biso  1.000000 H
   H38        1.0     0.672978      0.809511      0.475100     Biso  1.000000 H
   H39        1.0     0.327022      0.309511      0.024900     Biso  1.000000 H
   H40        1.0     0.827022      0.309511      0.024900     Biso  1.000000 H
   H41        1.0     0.321935      0.263725      0.346274     Biso  1.000000 H
   H42        1.0     0.821935      0.263725      0.346274     Biso  1.000000 H
   H43        1.0     0.178065      0.763725      0.153726     Biso  1.000000 H
   H44        1.0     0.678065      0.763725      0.153726     Biso  1.000000 H
   H45        1.0     0.178065      0.736275      0.653726     Biso  1.000000 H
   H46        1.0     0.678065      0.736275      0.653726     Biso  1.000000 H
   H47        1.0     0.321935      0.236275      0.846274     Biso  1.000000 H
   H48        1.0     0.821935      0.236275      0.846274     Biso  1.000000 H
   H49        1.0     0.240746      0.205007      0.362830     Biso  1.000000 H
   H50        1.0     0.740746      0.205007      0.362830     Biso  1.000000 H
   H51        1.0     0.259254      0.705007      0.137171     Biso  1.000000 H
   H52        1.0     0.759254      0.705007      0.137171     Biso  1.000000 H
   H53        1.0     0.259254      0.794993      0.637170     Biso  1.000000 H
   H54        1.0     0.759254      0.794993      0.637170     Biso  1.000000 H
   H55        1.0     0.240746      0.294993      0.862830     Biso  1.000000 H
   H56        1.0     0.740746      0.294993      0.862830     Biso  1.000000 H
   H57        1.0     0.314939      0.178882      0.269495     Biso  1.000000 H
   H58        1.0     0.814939      0.178882      0.269495     Biso  1.000000 H
   H59        1.0     0.185061      0.678882      0.230505     Biso  1.000000 H
   H60        1.0     0.685061      0.678882      0.230505     Biso  1.000000 H
   H61        1.0     0.185061      0.821118      0.730505     Biso  1.000000 H
   H62        1.0     0.685061      0.821118      0.730505     Biso  1.000000 H
   H63        1.0     0.314939      0.321118      0.769495     Biso  1.000000 H
   H64        1.0     0.814939      0.321118      0.769495     Biso  1.000000 H
   H65        1.0     0.344467      0.049102      0.519702     Biso  1.000000 H
   H66        1.0     0.844467      0.049102      0.519702     Biso  1.000000 H
   H67        1.0     0.155533      0.549102      0.980298     Biso  1.000000 H
   H68        1.0     0.655533      0.549102      0.980298     Biso  1.000000 H
   H69        1.0     0.155533      0.950898      0.480298     Biso  1.000000 H
   H70        1.0     0.655533      0.950898      0.480298     Biso  1.000000 H
   H71        1.0     0.344467      0.450898      0.019702     Biso  1.000000 H
   H72        1.0     0.844467      0.450898      0.019702     Biso  1.000000 H
   H73        1.0     0.327472      0.050472      0.373864     Biso  1.000000 H
   H74        1.0     0.827472      0.050472      0.373864     Biso  1.000000 H
   H75        1.0     0.172528      0.550472      0.126136     Biso  1.000000 H
   H76        1.0     0.672528      0.550472      0.126136     Biso  1.000000 H
   H77        1.0     0.172528      0.949528      0.626136     Biso  1.000000 H
   H78        1.0     0.672528      0.949528      0.626136     Biso  1.000000 H
   H79        1.0     0.327472      0.449528      0.873864     Biso  1.000000 H
   H80        1.0     0.827472      0.449528      0.873864     Biso  1.000000 H
   H81        1.0     0.254494      0.077757      0.467732     Biso  1.000000 H
   H82        1.0     0.754494      0.077757      0.467732     Biso  1.000000 H
   H83        1.0     0.245506      0.577757      0.032268     Biso  1.000000 H
   H84        1.0     0.745506      0.577757      0.032268     Biso  1.000000 H
   H85        1.0     0.245506      0.922243      0.532268     Biso  1.000000 H
   H86        1.0     0.745506      0.922243      0.532268     Biso  1.000000 H
   H87        1.0     0.254494      0.422243      0.967732     Biso  1.000000 H
   H88        1.0     0.754494      0.422243      0.967732     Biso  1.000000 H
   H89        1.0     0.488016      0.062537      0.541597     Biso  1.000000 H
   H90        1.0     0.988016      0.062537      0.541597     Biso  1.000000 H
   H91        1.0     0.011984      0.562537      0.958403     Biso  1.000000 H
   H92        1.0     0.511984      0.562537      0.958403     Biso  1.000000 H
   H93        1.0     0.011984      0.937463      0.458403     Biso  1.000000 H
   H94        1.0     0.511984      0.937463      0.458403     Biso  1.000000 H
   H95        1.0     0.488016      0.437463      0.041597     Biso  1.000000 H
   H96        1.0     0.988016      0.437463      0.041597     Biso  1.000000 H
   H97        1.0     0.100437      0.193850      0.573084     Biso  1.000000 H
   H98        1.0     0.600437      0.193850      0.573084     Biso  1.000000 H
   H99        1.0     0.399563      0.693850      0.926916     Biso  1.000000 H
   H100       1.0     0.899563      0.693850      0.926916     Biso  1.000000 H
   H101       1.0     0.399563      0.806150      0.426916     Biso  1.000000 H
   H102       1.0     0.899563      0.806150      0.426916     Biso  1.000000 H
   H103       1.0     0.100437      0.306150      0.073084     Biso  1.000000 H
   H104       1.0     0.600437      0.306150      0.073084     Biso  1.000000 H
   H105       1.0     0.115602      0.111887      0.491953     Biso  1.000000 H
   H106       1.0     0.615602      0.111887      0.491953     Biso  1.000000 H
   H107       1.0     0.384398      0.611887      0.008047     Biso  1.000000 H
   H108       1.0     0.884398      0.611887      0.008047     Biso  1.000000 H
   H109       1.0     0.384398      0.888113      0.508047     Biso  1.000000 H
   H110       1.0     0.884398      0.888113      0.508047     Biso  1.000000 H
   H111       1.0     0.115602      0.388113      0.991953     Biso  1.000000 H
   H112       1.0     0.615602      0.388113      0.991953     Biso  1.000000 H
   H113       1.0     0.109003      0.105044      0.638894     Biso  1.000000 H
   H114       1.0     0.609003      0.105044      0.638894     Biso  1.000000 H
   H115       1.0     0.390997      0.605044      0.861106     Biso  1.000000 H
   H116       1.0     0.890997      0.605044      0.861106     Biso  1.000000 H
   H117       1.0     0.390997      0.894956      0.361106     Biso  1.000000 H
   H118       1.0     0.890997      0.894956      0.361106     Biso  1.000000 H
   H119       1.0     0.109003      0.394956      0.138894     Biso  1.000000 H
   H120       1.0     0.609003      0.394956      0.138894     Biso  1.000000 H
   H121       1.0     0.485024      0.111608      0.739008     Biso  1.000000 H
   H122       1.0     0.985024      0.111608      0.739008     Biso  1.000000 H
   H123       1.0     0.014976      0.611608      0.760992     Biso  1.000000 H
   H124       1.0     0.514976      0.611608      0.760992     Biso  1.000000 H
   H125       1.0     0.014976      0.888392      0.260992     Biso  1.000000 H
   H126       1.0     0.514976      0.888392      0.260992     Biso  1.000000 H
   H127       1.0     0.485024      0.388392      0.239008     Biso  1.000000 H
   H128       1.0     0.985024      0.388392      0.239008     Biso  1.000000 H
   H129       1.0     0.397936      0.129616      0.668385     Biso  1.000000 H
   H130       1.0     0.897936      0.129616      0.668385     Biso  1.000000 H
   H131       1.0     0.102064      0.629616      0.831615     Biso  1.000000 H
   H132       1.0     0.602064      0.629616      0.831615     Biso  1.000000 H
   H133       1.0     0.102064      0.870384      0.331615     Biso  1.000000 H
   H134       1.0     0.602064      0.870384      0.331615     Biso  1.000000 H
   H135       1.0     0.397936      0.370384      0.168385     Biso  1.000000 H
   H136       1.0     0.897936      0.370384      0.168385     Biso  1.000000 H
   H137       1.0     0.464733      0.202620      0.688005     Biso  1.000000 H
   H138       1.0     0.964733      0.202620      0.688005     Biso  1.000000 H
   H139       1.0     0.035267      0.702620      0.811995     Biso  1.000000 H
   H140       1.0     0.535267      0.702620      0.811995     Biso  1.000000 H
   H141       1.0     0.035267      0.797380      0.311995     Biso  1.000000 H
   H142       1.0     0.535267      0.797380      0.311995     Biso  1.000000 H
   H143       1.0     0.464733      0.297380      0.188005     Biso  1.000000 H
   H144       1.0     0.964733      0.297380      0.188005     Biso  1.000000 H
   H145       1.0     0.450505      0.163387      0.234421     Biso  1.000000 H
   H146       1.0     0.950505      0.163387      0.234421     Biso  1.000000 H
   H147       1.0     0.049495      0.663387      0.265579     Biso  1.000000 H
   H148       1.0     0.549495      0.663387      0.265579     Biso  1.000000 H
   H149       1.0     0.049495      0.836613      0.765579     Biso  1.000000 H
   H150       1.0     0.549495      0.836613      0.765579     Biso  1.000000 H
   H151       1.0     0.450505      0.336613      0.734421     Biso  1.000000 H
   H152       1.0     0.950505      0.336613      0.734421     Biso  1.000000 H
   H153       1.0     0.021104      0.041590      0.209421     Biso  1.000000 H
   H154       1.0     0.521105      0.041590      0.209421     Biso  1.000000 H
   H155       1.0     0.478896      0.541590      0.290579     Biso  1.000000 H
   H156       1.0     0.978895      0.541590      0.290579     Biso  1.000000 H
   H157       1.0     0.478896      0.958410      0.790579     Biso  1.000000 H
   H158       1.0     0.978895      0.958410      0.790579     Biso  1.000000 H
   H159       1.0     0.021104      0.458410      0.709421     Biso  1.000000 H
   H160       1.0     0.521105      0.458410      0.709421     Biso  1.000000 H
   H161       1.0     0.443788      0.030719      0.303288     Biso  1.000000 H
   H162       1.0     0.943788      0.030719      0.303288     Biso  1.000000 H
   H163       1.0     0.056212      0.530719      0.196712     Biso  1.000000 H
   H164       1.0     0.556212      0.530719      0.196712     Biso  1.000000 H
   H165       1.0     0.056212      0.969281      0.696712     Biso  1.000000 H
   H166       1.0     0.556212      0.969281      0.696712     Biso  1.000000 H
   H167       1.0     0.443788      0.469281      0.803288     Biso  1.000000 H
   H168       1.0     0.943788      0.469281      0.803288     Biso  1.000000 H
   H169       1.0     0.038276      0.037938      0.355012     Biso  1.000000 H
   H170       1.0     0.538276      0.037938      0.355012     Biso  1.000000 H
   H171       1.0     0.461724      0.537938      0.144988     Biso  1.000000 H
   H172       1.0     0.961724      0.537938      0.144988     Biso  1.000000 H
   H173       1.0     0.461724      0.962062      0.644988     Biso  1.000000 H
   H174       1.0     0.961724      0.962062      0.644988     Biso  1.000000 H
   H175       1.0     0.038276      0.462062      0.855012     Biso  1.000000 H
   H176       1.0     0.538276      0.462062      0.855012     Biso  1.000000 H
   H177       1.0     0.115911      0.160028      0.320366     Biso  1.000000 H
   H178       1.0     0.615911      0.160028      0.320366     Biso  1.000000 H
   H179       1.0     0.384089      0.660028      0.179634     Biso  1.000000 H
   H180       1.0     0.884089      0.660028      0.179634     Biso  1.000000 H
   H181       1.0     0.384089      0.839972      0.679634     Biso  1.000000 H
   H182       1.0     0.884089      0.839972      0.679634     Biso  1.000000 H
   H183       1.0     0.115911      0.339972      0.820366     Biso  1.000000 H
   H184       1.0     0.615911      0.339972      0.820366     Biso  1.000000 H
   H185       1.0     0.068729      0.242646      0.275868     Biso  1.000000 H
   H186       1.0     0.568729      0.242646      0.275868     Biso  1.000000 H
   H187       1.0     0.431271      0.742646      0.224132     Biso  1.000000 H
   H188       1.0     0.931271      0.742646      0.224132     Biso  1.000000 H
   H189       1.0     0.431271      0.757354      0.724132     Biso  1.000000 H
   H190       1.0     0.931271      0.757354      0.724132     Biso  1.000000 H
   H191       1.0     0.068729      0.257354      0.775868     Biso  1.000000 H
   H192       1.0     0.568729      0.257354      0.775868     Biso  1.000000 H
   H193       1.0     0.085081      0.168490      0.180021     Biso  1.000000 H
   H194       1.0     0.585082      0.168490      0.180021     Biso  1.000000 H
   H195       1.0     0.414919      0.668490      0.319979     Biso  1.000000 H
   H196       1.0     0.914918      0.668490      0.319979     Biso  1.000000 H
   H197       1.0     0.414919      0.831510      0.819979     Biso  1.000000 H
   H198       1.0     0.914918      0.831510      0.819979     Biso  1.000000 H
   H199       1.0     0.085081      0.331510      0.680021     Biso  1.000000 H
   H200       1.0     0.585082      0.331510      0.680021     Biso  1.000000 H
   S1         1.0     0.261311      0.408902      0.292629     Biso  1.000000 S
   S2         1.0     0.761311      0.408902      0.292629     Biso  1.000000 S
   S3         1.0     0.238689      0.908902      0.207371     Biso  1.000000 S
   S4         1.0     0.738689      0.908902      0.207371     Biso  1.000000 S
   S5         1.0     0.238689      0.591098      0.707371     Biso  1.000000 S
   S6         1.0     0.738689      0.591098      0.707371     Biso  1.000000 S
   S7         1.0     0.261311      0.091098      0.792629     Biso  1.000000 S
   S8         1.0     0.761311      0.091098      0.792629     Biso  1.000000 S
