data_BTBT_Gomez.cif_2

_audit_creation_date               2017-03-31
_audit_creation_method             'generated by MedeA 2.20.2.6549'

_chemical_formula_sum              'C7H4S'

_symmetry_space_group_name_H-M     'P21/c'
_symmetry_Int_Tables_number        14

_cell_length_a                     11.88700
_cell_length_b                     5.88900
_cell_length_c                     8.11800
_cell_angle_alpha                  90.00
_cell_angle_beta                   106.54
_cell_angle_gamma                  90.00
_cell_volume                       544.78
_cell_formula_units_Z              4

loop_
_atom_site_label
_atom_site_symmetry_multiplicity
_atom_site_Wyckoff_symbol
_atom_site_fract_x
_atom_site_fract_y
_atom_site_fract_z
_atom_site_occupancy
C1       4 e   0.02493   0.40631   0.97164 1.0
C2       4 e   0.15039   0.41262   0.01691 1.0
C3       4 e   0.23156   0.26087   0.98073 1.0
H3       4 e   0.20082   0.10672   0.90725 1.0
C4       4 e   0.35076   0.31024   0.03828 1.0
H4       4 e   0.41356   0.19345   0.00847 1.0
C5       4 e   0.80744   0.38560   0.88781 1.0
C6       4 e   0.68736   0.33795   0.82876 1.0
H6       4 e   0.65641   0.18398   0.75495 1.0
C7       4 e   0.60891   0.49112   0.86680 1.0
H7       4 e   0.51508   0.45492   0.82304 1.0
S1       4 e   0.92037   0.21529   0.85805 1.0
