data_720293.cif_1

_audit_creation_date               2018-06-29
_audit_creation_method             'generated by MedeA 2.20.2.6549'

_chemical_formula_sum              'C32H41N4O4'

_symmetry_space_group_name_H-M     'P-1'
_symmetry_Int_Tables_number        2

_cell_length_a                     14.01350
_cell_length_b                     14.30920
_cell_length_c                     16.90720
_cell_angle_alpha                  71.99
_cell_angle_beta                   85.83
_cell_angle_gamma                  73.44
_cell_volume                       3090.01
_cell_formula_units_Z              4

loop_
_atom_site_label
_atom_site_symmetry_multiplicity
_atom_site_Wyckoff_symbol
_atom_site_fract_x
_atom_site_fract_y
_atom_site_fract_z
_atom_site_occupancy
N6       2 i   0.28639   0.24944   0.17791 1.0
O1       2 i   0.67927   0.03889  -0.05452 1.0
O2       2 i   0.49520  -0.14042   0.23140 1.0
N5       2 i   0.23322   0.43776   0.05705 1.0
H5A      2 i   0.28590   0.38710   0.07030 1.0
N2       2 i   0.55085   0.23030  -0.02752 1.0
O6       2 i  -0.05817   0.54010   0.14933 1.0
N1       2 i   0.45064   0.17519   0.08987 1.0
H1A      2 i   0.41060   0.23410   0.08740 1.0
N4       2 i   0.29210   0.53740  -0.06952 1.0
N3       2 i   0.40801   0.37008  -0.02290 1.0
O7       2 i   0.07350   0.35110   0.36493 1.0
O5       2 i   0.11060   0.69646  -0.15254 1.0
O4       2 i   0.40210   0.67930  -0.17280 1.0
O3       2 i   0.70611   0.31770  -0.13675 1.0
O8       2 i   0.37920  -0.01020   0.40073 1.0
N7       2 i   0.39850   0.07853   0.22024 1.0
N8       2 i   0.14348   0.39000   0.18200 1.0
C3       2 i   0.50120   0.32910  -0.04760 1.0
C4       2 i   0.22230   0.51710  -0.01590 1.0
C5       2 i   0.07770   0.53840   0.05850 1.0
C6       2 i   0.56760   0.04990   0.05570 1.0
C7       2 i   0.21070   0.30160   0.21668 1.0
C8       2 i   0.44860   0.08740   0.15150 1.0
C9       2 i   0.52170   0.00520   0.12800 1.0
C10      2 i   0.54000   0.40770  -0.10560 1.0
C11      2 i   0.12010   0.57920  -0.01730 1.0
C12      2 i   0.32840   0.15760   0.23485 1.0
C13      2 i   0.52250   0.15990   0.03270 1.0
C14      2 i   0.38190   0.47150  -0.06660 1.0
C15      2 i   0.06580   0.66470  -0.08060 1.0
C16      2 i   0.54620  -0.10130   0.16340 1.0
C17      2 i   0.46440   0.49910  -0.11740 1.0
C18      2 i  -0.02120   0.58360   0.07540 1.0
C19      2 i   0.75460  -0.01960  -0.09550 1.0
H19A     2 i   0.73590  -0.07860  -0.09870 1.0
H19B     2 i   0.81730  -0.04350  -0.06500 1.0
C20      2 i   0.64140  -0.01010   0.01750 1.0
C21      2 i   0.15180   0.44820   0.10580 1.0
C22      2 i   0.28240   0.15120   0.31549 1.0
C23      2 i   0.20700   0.24320   0.30481 1.0
C24      2 i   0.47730   0.59170  -0.16910 1.0
C25      2 i   0.61980  -0.15820   0.12590 1.0
H25A     2 i   0.63870  -0.22890   0.14870 1.0
C26      2 i  -0.03230   0.70700  -0.06110 1.0
H26A     2 i  -0.07130   0.76340  -0.10060 1.0
C27      2 i   0.14870   0.26170   0.37110 1.0
C28      2 i  -0.07300   0.66960   0.01280 1.0
H28A     2 i  -0.13830   0.70240   0.02240 1.0
C29      2 i   0.66670  -0.11430   0.05560 1.0
H29A     2 i   0.71700  -0.15630   0.03320 1.0
C30      2 i   0.29900   0.07590   0.39300 1.0
C31      2 i   0.76480   0.04730  -0.17980 1.0
H31A     2 i   0.77230   0.11090  -0.17550 1.0
H31B     2 i   0.70400   0.06350  -0.21130 1.0
C32      2 i   0.63030   0.40640  -0.14640 1.0
C33      2 i  -0.15840   0.58420   0.16950 1.0
H33A     2 i  -0.20280   0.59830   0.12330 1.0
H33B     2 i  -0.16350   0.64810   0.18050 1.0
C34      2 i   0.64040   0.49790  -0.19900 1.0
H34A     2 i   0.69950   0.49860  -0.22780 1.0
C35      2 i   0.40780   0.77130  -0.23110 1.0
H35A     2 i   0.40220   0.76820  -0.28700 1.0
H35B     2 i   0.47130   0.78340  -0.22540 1.0
C36      2 i   0.05440   0.76430  -0.22260 1.0
H36A     2 i   0.02750   0.83050  -0.21360 1.0
H36B     2 i  -0.00120   0.73960  -0.22960 1.0
C37      2 i   0.56640   0.58870  -0.21060 1.0
H37A     2 i   0.57660   0.64870  -0.24690 1.0
C38      2 i   0.16280   0.18510   0.44560 1.0
H38A     2 i   0.12160   0.19470   0.48980 1.0
C39      2 i   0.23700   0.09370   0.45660 1.0
H39A     2 i   0.24480   0.04360   0.50800 1.0
C40      2 i   0.32340   0.85640  -0.21530 1.0
H40A     2 i   0.26110   0.83880  -0.21330 1.0
H40B     2 i   0.33400   0.86410  -0.16180 1.0
C41      2 i   0.48790  -0.24080   0.25000 1.0
H41A     2 i   0.55410  -0.28770   0.26190 1.0
H41B     2 i   0.46200  -0.24840   0.20140 1.0
C42      2 i   0.42650  -0.26850   0.31790 1.0
H42A     2 i   0.44820  -0.25090   0.36330 1.0
H42B     2 i   0.35970  -0.22440   0.30230 1.0
C43      2 i   0.85090   0.00230  -0.22720 1.0
H43A     2 i   0.91170  -0.01550  -0.19520 1.0
H43B     2 i   0.84260  -0.06020  -0.23300 1.0
C44      2 i   0.11100   0.77660  -0.29760 1.0
H44A     2 i   0.17200   0.78970  -0.28610 1.0
H44B     2 i   0.12990   0.71150  -0.30930 1.0
C45      2 i   0.85460   0.20630  -0.06420 1.0
H45A     2 i   0.83820   0.14330  -0.05880 1.0
H45B     2 i   0.88570   0.19720  -0.01190 1.0
C46      2 i   0.10490   0.43980   0.35060 1.0
H46A     2 i   0.17300   0.41880   0.37110 1.0
H46B     2 i   0.10600   0.47090   0.29090 1.0
C47      2 i   0.50860  -0.15150   0.46940 1.0
H47A     2 i   0.50790  -0.17500   0.42150 1.0
H47B     2 i   0.55770  -0.11320   0.45950 1.0
C48      2 i   0.31690   0.95520  -0.28220 1.0
H48A     2 i   0.38010   0.97090  -0.28470 1.0
H48B     2 i   0.30580   0.94680  -0.33520 1.0
C49      2 i   0.40780  -0.08050   0.47580 1.0
H49A     2 i   0.35960  -0.11950   0.49410 1.0
H49B     2 i   0.41070  -0.04620   0.51660 1.0
C50      2 i   0.06760   0.85360  -0.37220 1.0
H50A     2 i   0.05620   0.91950  -0.36300 1.0
H50B     2 i   0.00290   0.84570  -0.38030 1.0
C51      2 i  -0.28070   0.53680   0.27620 1.0
H51A     2 i  -0.32890   0.55290   0.23220 1.0
H51B     2 i  -0.28870   0.59870   0.29120 1.0
C52      2 i   0.06530   0.60990   0.36610 1.0
H52A     2 i   0.12660   0.60110   0.39420 1.0
H52B     2 i   0.07780   0.63190   0.30690 1.0
C53      2 i   0.23670   1.04310  -0.27010 1.0
H53A     2 i   0.23750   1.10380  -0.31470 1.0
H53B     2 i   0.24740   1.05280  -0.21810 1.0
H53C     2 i   0.17340   1.02950  -0.26980 1.0
C54      2 i   0.53990  -0.24070   0.54290 1.0
H54A     2 i   0.54510  -0.21610   0.58930 1.0
H54B     2 i   0.48700  -0.27420   0.55530 1.0
C55      2 i  -0.18670   0.51120   0.24410 1.0
H55A     2 i  -0.17830   0.44780   0.23140 1.0
H55B     2 i  -0.13900   0.49690   0.28810 1.0
C56      2 i   0.12260   0.85750  -0.45110 1.0
H56A     2 i   0.08540   0.91350  -0.49540 1.0
H56B     2 i   0.13130   0.79460  -0.46360 1.0
H56C     2 i   0.18660   0.86690  -0.44520 1.0
C57      2 i   0.76380   0.28240  -0.07030 1.0
H57A     2 i   0.72420   0.25670  -0.02360 1.0
H57B     2 i   0.77890   0.34070  -0.06170 1.0
C58      2 i   0.05250   0.51190   0.38370 1.0
H58A     2 i   0.06060   0.48170   0.44350 1.0
H58B     2 i  -0.01690   0.52210   0.37110 1.0
C59      2 i   0.62970  -0.31580   0.54010 1.0
H59A     2 i   0.63940  -0.37050   0.59140 1.0
H59B     2 i   0.68430  -0.28590   0.53220 1.0
H59C     2 i   0.62650  -0.34200   0.49480 1.0
C60      2 i  -0.30610   0.45920   0.34960 1.0
H60A     2 i  -0.37210   0.48640   0.36720 1.0
H60B     2 i  -0.25950   0.44240   0.39410 1.0
H60C     2 i  -0.30320   0.39870   0.33500 1.0
C61      2 i   0.86180   0.07240  -0.31180 1.0
H61A     2 i   0.91800   0.03900  -0.33870 1.0
H61B     2 i   0.87190   0.13380  -0.30660 1.0
H61C     2 i   0.80260   0.08910  -0.34440 1.0
C62      2 i   0.41870  -0.36870   0.35050 1.0
H62A     2 i   0.48480  -0.41300   0.36850 1.0
H62B     2 i   0.39880  -0.38760   0.30520 1.0
C63      2 i   0.34970  -0.39260   0.42100 1.0
H63A     2 i   0.35370  -0.46410   0.43720 1.0
H63B     2 i   0.28270  -0.35320   0.40360 1.0
H63C     2 i   0.36840  -0.37580   0.46730 1.0
C64      2 i   0.93110   0.21410  -0.12700 1.0
H64A     2 i   0.94680   0.27830  -0.13540 1.0
H64B     2 i   0.90360   0.21710  -0.17900 1.0
C65      2 i   1.02860   0.12750  -0.10780 1.0
H65A     2 i   1.07300   0.13880  -0.15350 1.0
H65B     2 i   1.01460   0.06330  -0.09950 1.0
H65C     2 i   1.05910   0.12610  -0.05830 1.0
C66      2 i  -0.00240   0.69100   0.38270 1.0
H66A     2 i   0.02510   0.74820   0.36890 1.0
H66B     2 i  -0.01800   0.67280   0.44070 1.0
H66C     2 i  -0.06190   0.70900   0.35010 1.0
